Version 4
SHEET 1 1080 680
WIRE 160 -64 -96 -64
WIRE 288 -64 160 -64
WIRE 496 -64 288 -64
WIRE 160 32 160 16
WIRE 288 32 288 -64
WIRE 496 112 496 -64
WIRE 496 112 352 112
WIRE -96 128 -96 -64
WIRE 704 176 352 176
WIRE 464 240 352 240
WIRE 528 240 464 240
WIRE 704 240 704 176
WIRE 704 240 608 240
WIRE 784 240 704 240
WIRE 464 288 464 240
WIRE 704 416 704 240
WIRE -96 512 -96 208
WIRE 224 512 224 320
WIRE 224 512 -96 512
WIRE 464 512 464 352
WIRE 464 512 224 512
WIRE 704 512 704 480
WIRE 704 512 464 512
FLAG 784 240 Out
IOPIN 784 240 Out
FLAG 464 512 0
SYMBOL PowerProducts\\LT1110-5 224 176 R0
SYMATTR InstName U1
SYMBOL voltage -96 112 R0
WINDOW 123 0 0 Left 0
WINDOW 39 0 0 Left 0
SYMATTR InstName V1
SYMATTR Value 9
SYMBOL ind 512 256 R270
WINDOW 0 32 56 VTop 2
WINDOW 3 5 56 VBottom 2
SYMATTR InstName L1
SYMATTR Value 47µ
SYMBOL res 144 -80 R0
SYMATTR InstName R1
SYMATTR Value 220
SYMBOL schottky 480 352 R180
WINDOW 0 24 64 Left 2
WINDOW 3 24 0 Left 2
SYMATTR InstName D1
SYMATTR Value 1N5818
SYMATTR Description Diode
SYMATTR Type diode
SYMBOL polcap 688 416 R0
SYMATTR InstName C1
SYMATTR Value 10µ
TEXT 648 40 Left 2 !.tran 20m
