Version 4
SHEET 1 2420 984
WIRE 144 -64 -112 -64
WIRE 272 -64 144 -64
WIRE 384 -64 272 -64
WIRE 496 -64 464 -64
WIRE 544 -64 496 -64
WIRE 144 32 144 16
WIRE 272 32 272 -64
WIRE 544 32 544 -64
WIRE 496 112 496 -64
WIRE 496 112 336 112
WIRE -112 128 -112 -64
WIRE 544 176 544 96
WIRE 544 176 336 176
WIRE 688 176 688 96
WIRE 688 176 544 176
WIRE 816 176 688 176
WIRE 944 176 816 176
WIRE 1104 176 944 176
WIRE 544 224 544 176
WIRE 688 224 688 176
WIRE 384 240 336 240
WIRE 944 256 944 176
WIRE 1104 336 1104 176
WIRE 1104 336 1008 336
WIRE -112 368 -112 208
WIRE 208 368 208 320
WIRE 208 368 -112 368
WIRE 384 368 384 240
WIRE 384 368 208 368
WIRE 544 368 544 288
WIRE 544 368 384 368
WIRE 688 368 688 288
WIRE 1328 400 1008 400
WIRE 1088 464 1008 464
WIRE 1104 464 1088 464
WIRE 1232 464 1184 464
WIRE 1392 464 1392 400
WIRE 1392 464 1232 464
WIRE 1504 464 1392 464
WIRE 1872 464 1504 464
WIRE 1088 496 1088 464
WIRE 1232 496 1232 464
WIRE 1328 544 1328 400
WIRE 1392 544 1328 544
WIRE 1872 544 1872 464
WIRE 880 592 880 544
WIRE 1088 592 1088 560
WIRE 1088 592 880 592
WIRE 1232 592 1232 560
WIRE 1232 592 1088 592
WIRE 1360 592 1232 592
WIRE 1360 624 1360 592
WIRE 1392 624 1360 624
WIRE 1504 640 1504 464
WIRE 1872 688 1872 624
WIRE 2000 688 1872 688
WIRE 1872 752 1872 688
WIRE 1504 944 1504 704
WIRE 1872 944 1872 832
WIRE 1872 944 1504 944
FLAG 384 368 0
FLAG 688 96 OUT5V
IOPIN 688 96 Out
FLAG 688 368 0
FLAG 1088 592 0
FLAG 1392 400 OUT2.1V
IOPIN 1392 400 Out
FLAG 1872 944 0
FLAG 2000 688 PT1000_OUT
IOPIN 2000 688 Out
SYMBOL PowerProducts\\LT1110-5 208 176 R0
SYMATTR InstName U1
SYMBOL voltage -112 112 R0
WINDOW 123 0 0 Left 0
WINDOW 39 0 0 Left 0
SYMATTR InstName V1
SYMATTR Value 3
SYMBOL ind 368 -48 R270
WINDOW 0 32 56 VTop 2
WINDOW 3 5 56 VBottom 2
SYMATTR InstName L1
SYMATTR Value 47µ
SYMBOL res 128 -80 R0
SYMATTR InstName R1
SYMATTR Value 220
SYMBOL schottky 528 32 R0
SYMATTR InstName D1
SYMATTR Value 1N5818
SYMATTR Description Diode
SYMATTR Type diode
SYMBOL polcap 528 224 R0
SYMATTR InstName C1
SYMATTR Value 1000µ
SYMBOL PowerProducts\\LT1110 880 400 R0
SYMATTR InstName U2
SYMBOL res 800 160 R0
SYMATTR InstName R2
SYMATTR Value 220
SYMBOL polcap 672 224 R0
SYMATTR InstName C2
SYMATTR Value 10µ
SYMBOL ind 1088 480 R270
WINDOW 0 32 56 VTop 2
WINDOW 3 5 56 VBottom 2
SYMATTR InstName L2
SYMATTR Value 47µ
SYMBOL polcap 1216 496 R0
SYMATTR InstName C3
SYMATTR Value 1000µ
SYMBOL schottky 1104 560 R180
WINDOW 0 24 64 Left 2
WINDOW 3 24 0 Left 2
SYMATTR InstName D2
SYMATTR Value 1N5818
SYMATTR Description Diode
SYMATTR Type diode
SYMBOL res 1376 448 R0
SYMATTR InstName R3
SYMATTR Value 1500
SYMBOL res 1376 528 R0
SYMATTR InstName R4
SYMATTR Value 180
SYMBOL res 1856 528 R0
SYMATTR InstName R6
SYMATTR Value 10k
SYMBOL res 1856 736 R0
SYMATTR InstName R8
SYMATTR Value {x}
SYMBOL cap 1488 640 R0
SYMATTR InstName C4
SYMATTR Value 0.1µ
TEXT -144 392 Left 2 !.tran 20m
TEXT 1560 432 Left 2 !.step param X 800 3200 400
